/*--------------------------------*- C++ -*----------------------------------*\
  =========                 |
  \\      /  F ield         | OpenFOAM: The Open Source CFD Toolbox
   \\    /   O peration     | Website:  https://openfoam.org
    \\  /    A nd           | Version:  6
     \\/     M anipulation  |
\*---------------------------------------------------------------------------*/
FoamFile
{
    version     2.0;
    format      ascii;
    class       polyBoundaryMesh;
    location    "constant/polyMesh";
    object      boundary;
}
// * * * * * * * * * * * * * * * * * * * * * * * * * * * * * * * * * * * * * //

6
(
    rotor
    {
        type            wall;
        inGroups        1(wall);
        nFaces          48;
        startFace       1468;
    }
    stator
    {
        type            wall;
        inGroups        1(wall);
        nFaces          48;
        startFace       1516;
    }
    front
    {
        type            empty;
        inGroups        1(empty);
        nFaces          768;
        startFace       1564;
    }
    back
    {
        type            empty;
        inGroups        1(empty);
        nFaces          768;
        startFace       2332;
    }
    procBoundary1to0
    {
        type            processor;
        inGroups        1(processor);
        nFaces          20;
        startFace       3100;
        matchTolerance  0.0001;
        transform       unknown;
        myProcNo        1;
        neighbProcNo    0;
    }
    procBoundary1to3
    {
        type            processor;
        inGroups        1(processor);
        nFaces          20;
        startFace       3120;
        matchTolerance  0.0001;
        transform       unknown;
        myProcNo        1;
        neighbProcNo    3;
    }
)

// ************************************************************************* //
